
#======================================================================
# CRYSTAL DATA
#----------------------------------------------------------------------
data_VESTA_phase_1

_chemical_name_common                  'This file is generated by VASPKIT code'
_cell_length_a                         17.971874
_cell_length_b                         17.484592
_cell_length_c                         37.942123
_cell_angle_alpha                      89.434662
_cell_angle_beta                       90.699638
_cell_angle_gamma                      89.874863
_cell_volume                           11921.086588
_space_group_name_H-M_alt              'P 1'
_space_group_IT_number                 1

loop_
_space_group_symop_operation_xyz
   'x, y, z'

loop_
   _atom_site_label
   _atom_site_occupancy
   _atom_site_fract_x
   _atom_site_fract_y
   _atom_site_fract_z
   _atom_site_adp_type
   _atom_site_U_iso_or_equiv
   _atom_site_type_symbol
   I1         1.0     0.409246     0.108786     0.015944    Uiso  ? I
   I2         1.0     0.409328     0.608851     0.015861    Uiso  ? I
   I3         1.0     0.909967     0.108552     0.015580    Uiso  ? I
   I4         1.0     0.910080     0.608668     0.015463    Uiso  ? I
   I5         1.0     0.373695     0.357143     0.014351    Uiso  ? I
   I6         1.0     0.373873     0.857153     0.014409    Uiso  ? I
   I7         1.0     0.873001     0.356274     0.013802    Uiso  ? I
   I8         1.0     0.873670     0.856817     0.013804    Uiso  ? I
   I9         1.0     0.051387     0.247026     0.084947    Uiso  ? I
   I10        1.0     0.051433     0.747056     0.084985    Uiso  ? I
   I11        1.0     0.552090     0.247332     0.084586    Uiso  ? I
   I12        1.0     0.552111     0.747191     0.084949    Uiso  ? I
   I13        1.0     0.232633     0.000603     0.084859    Uiso  ? I
   I14        1.0     0.231671     0.501693     0.084679    Uiso  ? I
   I15        1.0     0.734868     0.000349     0.084927    Uiso  ? I
   I16        1.0     0.735529     0.501638     0.084842    Uiso  ? I
   I17        1.0     0.375287     0.357428     0.155314    Uiso  ? I
   I18        1.0     0.375205     0.856570     0.155612    Uiso  ? I
   I19        1.0     0.874793     0.356462     0.155691    Uiso  ? I
   I20        1.0     0.874715     0.856091     0.156062    Uiso  ? I
   I21        1.0     0.413277     0.106943     0.156309    Uiso  ? I
   I22        1.0     0.414317     0.606139     0.156243    Uiso  ? I
   I23        1.0     0.914198     0.106353     0.156492    Uiso  ? I
   I24        1.0     0.914703     0.605964     0.156444    Uiso  ? I
   I25        1.0     0.124913     0.397449     0.178934    Uiso  ? I
   I26        1.0     0.125049     0.896868     0.179446    Uiso  ? I
   I27        1.0     0.625078     0.397386     0.178816    Uiso  ? I
   I28        1.0     0.625552     0.896808     0.179196    Uiso  ? I
   I29        1.0     0.164584     0.146591     0.179519    Uiso  ? I
   I30        1.0     0.166470     0.648824     0.179744    Uiso  ? I
   I31        1.0     0.665360     0.147750     0.179167    Uiso  ? I
   I32        1.0     0.666526     0.648722     0.179729    Uiso  ? I
   I33        1.0     0.303262    -0.000110     0.249858    Uiso  ? I
   I34        1.0     0.301401     0.503328     0.249503    Uiso  ? I
   I35        1.0     0.802807     0.003092     0.250080    Uiso  ? I
   I36        1.0     0.803712     0.500746     0.249871    Uiso  ? I
   I37        1.0     0.989209     0.253417     0.249817    Uiso  ? I
   I38        1.0     0.989501     0.753113     0.249849    Uiso  ? I
   I39        1.0     0.488956     0.252773     0.248799    Uiso  ? I
   I40        1.0     0.488930     0.753749     0.249585    Uiso  ? I
   I41        1.0     0.124915     0.396185     0.321149    Uiso  ? I
   I42        1.0     0.125033     0.896340     0.321334    Uiso  ? I
   I43        1.0     0.626741     0.395471     0.320535    Uiso  ? I
   I44        1.0     0.625432     0.896974     0.321128    Uiso  ? I
   I45        1.0     0.167106     0.146782     0.320666    Uiso  ? I
   I46        1.0     0.165846     0.644387     0.324465    Uiso  ? I
   I47        1.0     0.666933     0.146204     0.320868    Uiso  ? I
   I48        1.0     0.665521     0.645441     0.320694    Uiso  ? I
   I49        1.0     0.417555     0.102204     0.340733    Uiso  ? I
   I50        1.0     0.414339     0.605803     0.339524    Uiso  ? I
   I51        1.0     0.915585     0.104040     0.344296    Uiso  ? I
   I52        1.0     0.917160     0.602874     0.341528    Uiso  ? I
   I53        1.0     0.375389     0.350746     0.338528    Uiso  ? I
   I54        1.0     0.376468     0.853868     0.344256    Uiso  ? I
   I55        1.0     0.876831     0.353710     0.344467    Uiso  ? I
   I56        1.0     0.876877     0.853962     0.344192    Uiso  ? I
   I57        1.0     0.055801     0.244440     0.414761    Uiso  ? I
   I58        1.0     0.051996     0.743226     0.415159    Uiso  ? I
   I59        1.0     0.535929     0.257076     0.414807    Uiso  ? I
   I60        1.0     0.551929     0.743130     0.414907    Uiso  ? I
   I61        1.0     0.239889     0.997394     0.414807    Uiso  ? I
   I62        1.0     0.259874     0.476854     0.415623    Uiso  ? I
   I63        1.0     0.736493     0.996741     0.414757    Uiso  ? I
   I64        1.0     0.740253     0.500523     0.414537    Uiso  ? I
   I65        1.0     0.405980     0.111676     0.489466    Uiso  ? I
   I66        1.0     0.418902     0.593451     0.488646    Uiso  ? I
   I67        1.0     0.907687     0.102971     0.487931    Uiso  ? I
   I68        1.0     0.916662     0.597077     0.489234    Uiso  ? I
   I69        1.0     0.373553     0.848239     0.484312    Uiso  ? I
   I70        1.0     0.874414     0.351929     0.480298    Uiso  ? I
   I71        1.0     0.875682     0.851098     0.487075    Uiso  ? I
   I72        1.0     0.123408     0.393155     0.505041    Uiso  ? I
   I73        1.0     0.117505     0.896540     0.506176    Uiso  ? I
   I74        1.0     0.611809     0.406855     0.504973    Uiso  ? I
   I75        1.0     0.611306     0.902169     0.506264    Uiso  ? I
   I76        1.0     0.165108     0.143655     0.504772    Uiso  ? I
   I77        1.0     0.170759     0.633598     0.500319    Uiso  ? I
   I78        1.0     0.656976     0.148614     0.502648    Uiso  ? I
   I79        1.0     0.673544     0.651801     0.504440    Uiso  ? I
   I80        1.0     0.299246     0.495107     0.581477    Uiso  ? I
   I81        1.0     0.291588     0.000666     0.581043    Uiso  ? I
   I82        1.0     0.793716     0.497289     0.580932    Uiso  ? I
   I83        1.0     0.789698     0.003622     0.580584    Uiso  ? I
   I84        1.0     0.995653     0.251020     0.580242    Uiso  ? I
   I85        1.0     0.002466     0.743937     0.581222    Uiso  ? I
   I86        1.0     0.496340     0.254950     0.580929    Uiso  ? I
   I87        1.0     0.494840     0.747289     0.580906    Uiso  ? I
   I88        1.0     0.123954     0.403400     0.662421    Uiso  ? I
   I89        1.0     0.123712     0.904275     0.661975    Uiso  ? I
   I90        1.0     0.625305     0.403025     0.664291    Uiso  ? I
   I91        1.0     0.623690     0.902724     0.661093    Uiso  ? I
   I92        1.0     0.178070     0.156012     0.666021    Uiso  ? I
   I93        1.0     0.177723     0.653604     0.665376    Uiso  ? I
   I94        1.0     0.678842     0.156156     0.665513    Uiso  ? I
   I95        1.0     0.678823     0.656166     0.665616    Uiso  ? I
   I96        1.0     0.430029     0.094582     0.675470    Uiso  ? I
   I97        1.0     0.429070     0.594373     0.678560    Uiso  ? I
   I98        1.0     0.929829     0.093918     0.675380    Uiso  ? I
   I99        1.0     0.931034     0.593904     0.676445    Uiso  ? I
   I100       1.0     0.375746     0.350204     0.670023    Uiso  ? I
   I101       1.0     0.375110     0.850865     0.669675    Uiso  ? I
   I102       1.0     0.874936     0.350728     0.669712    Uiso  ? I
   I103       1.0     0.876428     0.851009     0.669672    Uiso  ? I
   I104       1.0     0.020972     0.253093     0.749805    Uiso  ? I
   I105       1.0     0.021172     0.753212     0.750198    Uiso  ? I
   I106       1.0     0.521500     0.253087     0.750054    Uiso  ? I
   I107       1.0     0.521582     0.753293     0.749987    Uiso  ? I
   I108       1.0     0.261316     0.992689     0.749860    Uiso  ? I
   I109       1.0     0.261269     0.492543     0.749957    Uiso  ? I
   I110       1.0     0.761283     0.992475     0.749641    Uiso  ? I
   I111       1.0     0.761415     0.492592     0.749900    Uiso  ? I
   I112       1.0     0.427440     0.090809     0.825074    Uiso  ? I
   I113       1.0     0.427256     0.590927     0.825301    Uiso  ? I
   I114       1.0     0.927364     0.090749     0.825115    Uiso  ? I
   I115       1.0     0.927367     0.590864     0.825255    Uiso  ? I
   I116       1.0     0.367124     0.341053     0.829360    Uiso  ? I
   I117       1.0     0.366600     0.841278     0.829471    Uiso  ? I
   I118       1.0     0.866586     0.341194     0.829419    Uiso  ? I
   I119       1.0     0.866774     0.840673     0.829512    Uiso  ? I
   I120       1.0     0.177292     0.153316     0.830389    Uiso  ? I
   I121       1.0     0.177613     0.653090     0.830630    Uiso  ? I
   I122       1.0     0.677497     0.152941     0.830451    Uiso  ? I
   I123       1.0     0.677308     0.653338     0.830513    Uiso  ? I
   I124       1.0     0.120383     0.400085     0.836528    Uiso  ? I
   I125       1.0     0.120219     0.900247     0.836215    Uiso  ? I
   I126       1.0     0.620436     0.400071     0.836617    Uiso  ? I
   I127       1.0     0.620222     0.900418     0.836172    Uiso  ? I
   I128       1.0     0.997302     0.245628     0.918825    Uiso  ? I
   I129       1.0     0.997175     0.745629     0.918923    Uiso  ? I
   I130       1.0     0.496912     0.245509     0.918798    Uiso  ? I
   I131       1.0     0.497320     0.745737     0.918887    Uiso  ? I
   I132       1.0     0.291635     0.499905     0.918908    Uiso  ? I
   I133       1.0     0.291805     0.999727     0.918940    Uiso  ? I
   I134       1.0     0.791507     0.499732     0.918897    Uiso  ? I
   I135       1.0     0.791810     0.999643     0.918810    Uiso  ? I
   I136       1.0     0.116901     0.403913     0.993656    Uiso  ? I
   I137       1.0     0.116855     0.903871     0.993795    Uiso  ? I
   I138       1.0     0.616890     0.403558     0.994029    Uiso  ? I
   I139       1.0     0.616929     0.903712     0.994007    Uiso  ? I
   I140       1.0     0.165560     0.150997     0.991093    Uiso  ? I
   I141       1.0     0.166059     0.651398     0.991010    Uiso  ? I
   I142       1.0     0.665317     0.150779     0.991148    Uiso  ? I
   I143       1.0     0.665433     0.650882     0.991151    Uiso  ? I
   Pb1        1.0     0.266069     0.001960     0.002644    Uiso  ? Pb
   Pb2        1.0     0.266111     0.502061     0.002488    Uiso  ? Pb
   Pb3        1.0     0.766306     0.001910     0.002397    Uiso  ? Pb
   Pb4        1.0     0.766258     0.501970     0.002396    Uiso  ? Pb
   Pb5        1.0     0.017939     0.252215     0.002167    Uiso  ? Pb
   Pb6        1.0     0.018131     0.752210     0.002188    Uiso  ? Pb
   Pb7        1.0     0.517449     0.251994     0.001988    Uiso  ? Pb
   Pb8        1.0     0.517709     0.752208     0.002210    Uiso  ? Pb
   Pb9        1.0     0.268875     0.000726     0.167275    Uiso  ? Pb
   Pb10       1.0     0.268643     0.501938     0.166554    Uiso  ? Pb
   Pb11       1.0     0.769263     0.001473     0.167289    Uiso  ? Pb
   Pb12       1.0     0.769227     0.502060     0.167314    Uiso  ? Pb
   Pb13       1.0     0.019684     0.251334     0.167236    Uiso  ? Pb
   Pb14       1.0     0.020112     0.751168     0.167222    Uiso  ? Pb
   Pb15       1.0     0.520231     0.251327     0.166352    Uiso  ? Pb
   Pb16       1.0     0.520033     0.751180     0.167121    Uiso  ? Pb
   Pb17       1.0     0.020877     0.249305     0.332515    Uiso  ? Pb
   Pb18       1.0     0.021138     0.750187     0.332366    Uiso  ? Pb
   Pb19       1.0     0.521614     0.249177     0.330362    Uiso  ? Pb
   Pb20       1.0     0.522155     0.751413     0.331841    Uiso  ? Pb
   Pb21       1.0     0.270383     0.999209     0.331983    Uiso  ? Pb
   Pb22       1.0     0.271475     0.497028     0.331121    Uiso  ? Pb
   Pb23       1.0     0.771553     0.999508     0.332437    Uiso  ? Pb
   Pb24       1.0     0.772270     0.499384     0.331974    Uiso  ? Pb
   Pb25       1.0     0.267671     0.990669     0.497761    Uiso  ? Pb
   Pb26       1.0     0.273355     0.489988     0.498925    Uiso  ? Pb
   Pb27       1.0     0.766474     0.990494     0.497377    Uiso  ? Pb
   Pb28       1.0     0.770293     0.493336     0.497563    Uiso  ? Pb
   Pb29       1.0     0.015787     0.248381     0.496289    Uiso  ? Pb
   Pb30       1.0     0.018012     0.746696     0.497101    Uiso  ? Pb
   Pb31       1.0     0.519376     0.254818     0.497749    Uiso  ? Pb
   Pb32       1.0     0.519014     0.748545     0.497260    Uiso  ? Pb
   Pb33       1.0     0.021209     0.247375     0.663590    Uiso  ? Pb
   Pb34       1.0     0.023049     0.747445     0.664321    Uiso  ? Pb
   Pb35       1.0     0.522787     0.247497     0.664465    Uiso  ? Pb
   Pb36       1.0     0.520617     0.746326     0.663968    Uiso  ? Pb
   Pb37       1.0     0.277931     0.006076     0.664336    Uiso  ? Pb
   Pb38       1.0     0.278177     0.503128     0.665054    Uiso  ? Pb
   Pb39       1.0     0.777795     0.005072     0.663982    Uiso  ? Pb
   Pb40       1.0     0.779010     0.505172     0.664418    Uiso  ? Pb
   Pb41       1.0     0.278055     0.996856     0.835790    Uiso  ? Pb
   Pb42       1.0     0.278295     0.496485     0.835910    Uiso  ? Pb
   Pb43       1.0     0.778344     0.996520     0.835590    Uiso  ? Pb
   Pb44       1.0     0.777955     0.496672     0.835787    Uiso  ? Pb
   Pb45       1.0     0.017679     0.250100     0.836181    Uiso  ? Pb
   Pb46       1.0     0.017819     0.750094     0.836363    Uiso  ? Pb
   Pb47       1.0     0.517915     0.249916     0.836318    Uiso  ? Pb
   Pb48       1.0     0.517693     0.750645     0.836151    Uiso  ? Pb
   Cs1        1.0     0.269944     0.235156     0.085326    Uiso  ? Cs
   Cs2        1.0     0.269842     0.735772     0.085246    Uiso  ? Cs
   Cs3        1.0     0.770844     0.234817     0.085201    Uiso  ? Cs
   Cs4        1.0     0.770786     0.735307     0.085258    Uiso  ? Cs
   Cs5        1.0     0.013237     0.482481     0.086043    Uiso  ? Cs
   Cs6        1.0     0.014187     0.983248     0.086507    Uiso  ? Cs
   Cs7        1.0     0.516040     0.484184     0.085992    Uiso  ? Cs
   Cs8        1.0     0.515335     0.983924     0.086595    Uiso  ? Cs
   Cs9        1.0     0.268833     0.267983     0.248664    Uiso  ? Cs
   Cs10       1.0     0.269389     0.766127     0.251707    Uiso  ? Cs
   Cs11       1.0     0.770568     0.268080     0.249715    Uiso  ? Cs
   Cs12       1.0     0.770058     0.768975     0.250528    Uiso  ? Cs
   Cs13       1.0     0.022349     0.019510     0.249705    Uiso  ? Cs
   Cs14       1.0     0.023495     0.519668     0.249275    Uiso  ? Cs
   Cs15       1.0     0.522360     0.018046     0.248719    Uiso  ? Cs
   Cs16       1.0     0.522128     0.518367     0.248832    Uiso  ? Cs
   Cs17       1.0     0.276979     0.229378     0.411845    Uiso  ? Cs
   Cs18       1.0     0.277302     0.724149     0.412572    Uiso  ? Cs
   Cs19       1.0     0.764715     0.232611     0.411798    Uiso  ? Cs
   Cs20       1.0     0.775552     0.730833     0.413086    Uiso  ? Cs
   Cs21       1.0     0.026942     0.485187     0.414234    Uiso  ? Cs
   Cs22       1.0     0.017730     0.982946     0.416158    Uiso  ? Cs
   Cs23       1.0     0.523888     0.491987     0.409379    Uiso  ? Cs
   Cs24       1.0     0.512475     0.983323     0.415945    Uiso  ? Cs
   C1         1.0     0.269151     0.272462     0.587947    Uiso  ? C
   C2         1.0     0.270925     0.771156     0.587102    Uiso  ? C
   C3         1.0     0.769042     0.274837     0.586306    Uiso  ? C
   C4         1.0     0.767094     0.773022     0.589623    Uiso  ? C
   C5         1.0     0.025695     0.020997     0.575788    Uiso  ? C
   C6         1.0     0.035458     0.520195     0.575190    Uiso  ? C
   C7         1.0     0.525274     0.025895     0.576670    Uiso  ? C
   C8         1.0     0.533854     0.528622     0.578001    Uiso  ? C
   C9         1.0     0.292899     0.265466     0.748867    Uiso  ? C
   C10        1.0     0.292315     0.765820     0.749189    Uiso  ? C
   C11        1.0     0.792851     0.265463     0.748850    Uiso  ? C
   C12        1.0     0.793076     0.765557     0.748791    Uiso  ? C
   C13        1.0     0.041890     0.475527     0.750410    Uiso  ? C
   C14        1.0     0.041969     0.975896     0.749818    Uiso  ? C
   C15        1.0     0.542181     0.475631     0.751079    Uiso  ? C
   C16        1.0     0.542010     0.975752     0.749703    Uiso  ? C
   C17        1.0     0.264619     0.268704     0.924652    Uiso  ? C
   C18        1.0     0.264536     0.769685     0.924783    Uiso  ? C
   C19        1.0     0.764304     0.268671     0.924749    Uiso  ? C
   C20        1.0     0.764265     0.768911     0.924758    Uiso  ? C
   C21        1.0     0.028315     0.019779     0.909212    Uiso  ? C
   C22        1.0     0.028077     0.519117     0.909267    Uiso  ? C
   C23        1.0     0.528356     0.019468     0.909360    Uiso  ? C
   C24        1.0     0.528187     0.519647     0.909353    Uiso  ? C
   N1         1.0     0.299508     0.226494     0.564951    Uiso  ? N
   N2         1.0     0.298556     0.724738     0.563585    Uiso  ? N
   N3         1.0     0.798567     0.230993     0.562287    Uiso  ? N
   N4         1.0     0.804172     0.729621     0.567891    Uiso  ? N
   N5         1.0     0.199340     0.294612     0.587424    Uiso  ? N
   N6         1.0     0.202302     0.796963     0.587215    Uiso  ? N
   N7         1.0     0.699490     0.298022     0.586470    Uiso  ? N
   N8         1.0     0.698431     0.796993     0.584552    Uiso  ? N
   N9         1.0     0.487168     0.979720     0.597013    Uiso  ? N
   N10        1.0     0.495518     0.487340     0.600380    Uiso  ? N
   N11        1.0     0.985561     0.977575     0.596557    Uiso  ? N
   N12        1.0     0.990225     0.486584     0.597313    Uiso  ? N
   N13        1.0     0.090666     0.050116     0.584392    Uiso  ? N
   N14        1.0     0.100322     0.549551     0.583858    Uiso  ? N
   N15        1.0     0.590664     0.054626     0.584893    Uiso  ? N
   N16        1.0     0.599564     0.558259     0.584716    Uiso  ? N
   N17        1.0     0.222810     0.286423     0.750130    Uiso  ? N
   N18        1.0     0.222600     0.787182     0.752099    Uiso  ? N
   N19        1.0     0.722887     0.286243     0.751249    Uiso  ? N
   N20        1.0     0.723078     0.786740     0.750253    Uiso  ? N
   N21        1.0     0.317755     0.194913     0.749280    Uiso  ? N
   N22        1.0     0.316849     0.695162     0.749803    Uiso  ? N
   N23        1.0     0.817858     0.194972     0.748990    Uiso  ? N
   N24        1.0     0.817770     0.694946     0.749344    Uiso  ? N
   N25        1.0     0.472102     0.455033     0.752099    Uiso  ? N
   N26        1.0     0.471897     0.955265     0.750678    Uiso  ? N
   N27        1.0     0.971845     0.454957     0.751815    Uiso  ? N
   N28        1.0     0.971877     0.955287     0.750678    Uiso  ? N
   N29        1.0     0.066686     0.046400     0.749522    Uiso  ? N
   N30        1.0     0.066678     0.546007     0.750602    Uiso  ? N
   N31        1.0     0.566908     0.046187     0.749876    Uiso  ? N
   N32        1.0     0.566870     0.546145     0.751083    Uiso  ? N
   N33        1.0     0.298597     0.222275     0.903107    Uiso  ? N
   N34        1.0     0.299218     0.723632     0.903323    Uiso  ? N
   N35        1.0     0.798790     0.222749     0.903164    Uiso  ? N
   N36        1.0     0.798612     0.722637     0.903277    Uiso  ? N
   N37        1.0     0.201875     0.304563     0.917424    Uiso  ? N
   N38        1.0     0.201339     0.804614     0.917471    Uiso  ? N
   N39        1.0     0.701222     0.303953     0.917553    Uiso  ? N
   N40        1.0     0.701362     0.804416     0.917447    Uiso  ? N
   N41        1.0     0.485930     0.011949     0.937085    Uiso  ? N
   N42        1.0     0.485821     0.511415     0.937059    Uiso  ? N
   N43        1.0     0.985924     0.012025     0.936934    Uiso  ? N
   N44        1.0     0.985320     0.511699     0.936874    Uiso  ? N
   N45        1.0     0.093893     0.052700     0.909269    Uiso  ? N
   N46        1.0     0.093515     0.552315     0.909405    Uiso  ? N
   N47        1.0     0.594013     0.052199     0.909393    Uiso  ? N
   N48        1.0     0.593570     0.552963     0.909471    Uiso  ? N
   H1         1.0     0.269037     0.201173     0.545206    Uiso  ? H
   H2         1.0     0.267653     0.703605     0.543000    Uiso  ? H
   H3         1.0     0.768336     0.209984     0.541491    Uiso  ? H
   H4         1.0     0.780678     0.709598     0.545046    Uiso  ? H
   H5         1.0     0.354757     0.213327     0.567613    Uiso  ? H
   H6         1.0     0.353859     0.711017     0.565307    Uiso  ? H
   H7         1.0     0.854067     0.218190     0.564153    Uiso  ? H
   H8         1.0     0.858944     0.717503     0.573163    Uiso  ? H
   H9         1.0     0.161960     0.278162     0.568557    Uiso  ? H
   H10        1.0     0.163609     0.783857     0.568370    Uiso  ? H
   H11        1.0     0.661715     0.284273     0.567330    Uiso  ? H
   H12        1.0     0.668201     0.785054     0.562388    Uiso  ? H
   H13        1.0     0.304861     0.294168     0.609204    Uiso  ? H
   H14        1.0     0.308104     0.790004     0.608396    Uiso  ? H
   H15        1.0     0.805197     0.293632     0.607992    Uiso  ? H
   H16        1.0     0.795642     0.790989     0.613827    Uiso  ? H
   H17        1.0     0.180217     0.329477     0.606919    Uiso  ? H
   H18        1.0     0.185157     0.831381     0.607269    Uiso  ? H
   H19        1.0     0.681110     0.331053     0.606745    Uiso  ? H
   H20        1.0     0.673867     0.829862     0.603356    Uiso  ? H
   H21        1.0     0.433913     0.965333     0.590001    Uiso  ? H
   H22        1.0     0.442370     0.471366     0.593995    Uiso  ? H
   H23        1.0     0.932625     0.963099     0.589087    Uiso  ? H
   H24        1.0     0.937938     0.471117     0.589179    Uiso  ? H
   H25        1.0     0.018005     0.524188     0.547529    Uiso  ? H
   H26        1.0     0.003342     0.034230     0.549481    Uiso  ? H
   H27        1.0     0.509360     0.539324     0.551880    Uiso  ? H
   H28        1.0     0.500844     0.042091     0.551118    Uiso  ? H
   H29        1.0     0.002998     0.963147     0.621525    Uiso  ? H
   H30        1.0     0.002707     0.481179     0.623571    Uiso  ? H
   H31        1.0     0.506960     0.962219     0.621194    Uiso  ? H
   H32        1.0     0.515653     0.473738     0.625026    Uiso  ? H
   H33        1.0     0.119284     0.081013     0.566020    Uiso  ? H
   H34        1.0     0.131944     0.574022     0.564663    Uiso  ? H
   H35        1.0     0.617862     0.087456     0.566801    Uiso  ? H
   H36        1.0     0.626151     0.588342     0.565381    Uiso  ? H
   H37        1.0     0.114480     0.042193     0.608700    Uiso  ? H
   H38        1.0     0.119295     0.552158     0.609308    Uiso  ? H
   H39        1.0     0.616504     0.044053     0.608533    Uiso  ? H
   H40        1.0     0.624467     0.555207     0.609012    Uiso  ? H
   H41        1.0     0.179325     0.249294     0.752092    Uiso  ? H
   H42        1.0     0.179557     0.750324     0.756152    Uiso  ? H
   H43        1.0     0.679775     0.248985     0.754208    Uiso  ? H
   H44        1.0     0.679535     0.749799     0.752674    Uiso  ? H
   H45        1.0     0.211206     0.343551     0.750001    Uiso  ? H
   H46        1.0     0.211246     0.844372     0.751947    Uiso  ? H
   H47        1.0     0.711115     0.343331     0.751211    Uiso  ? H
   H48        1.0     0.711688     0.843927     0.750107    Uiso  ? H
   H49        1.0     0.284346     0.147812     0.750855    Uiso  ? H
   H50        1.0     0.283482     0.648392     0.752864    Uiso  ? H
   H51        1.0     0.784692     0.147817     0.751209    Uiso  ? H
   H52        1.0     0.784323     0.647938     0.751301    Uiso  ? H
   H53        1.0     0.334028     0.310931     0.747024    Uiso  ? H
   H54        1.0     0.333246     0.810938     0.745466    Uiso  ? H
   H55        1.0     0.833680     0.311013     0.746122    Uiso  ? H
   H56        1.0     0.834285     0.810879     0.746578    Uiso  ? H
   H57        1.0     0.373694     0.185908     0.747973    Uiso  ? H
   H58        1.0     0.372337     0.685549     0.746758    Uiso  ? H
   H59        1.0     0.873651     0.186089     0.746692    Uiso  ? H
   H60        1.0     0.873682     0.685806     0.747937    Uiso  ? H
   H61        1.0     0.460121     0.398050     0.752136    Uiso  ? H
   H62        1.0     0.459863     0.898286     0.750518    Uiso  ? H
   H63        1.0     0.959855     0.397969     0.751653    Uiso  ? H
   H64        1.0     0.959970     0.898279     0.750903    Uiso  ? H
   H65        1.0     0.429130     0.493011     0.753351    Uiso  ? H
   H66        1.0     0.428924     0.993220     0.752050    Uiso  ? H
   H67        1.0     0.928935     0.492851     0.753728    Uiso  ? H
   H68        1.0     0.928788     0.993209     0.751440    Uiso  ? H
   H69        1.0     0.083063     0.429833     0.748756    Uiso  ? H
   H70        1.0     0.083285     0.930168     0.749208    Uiso  ? H
   H71        1.0     0.583474     0.429953     0.750007    Uiso  ? H
   H72        1.0     0.583175     0.929954     0.748513    Uiso  ? H
   H73        1.0     0.032951     0.093468     0.749909    Uiso  ? H
   H74        1.0     0.033011     0.592984     0.751968    Uiso  ? H
   H75        1.0     0.533294     0.093272     0.750860    Uiso  ? H
   H76        1.0     0.533075     0.593109     0.751910    Uiso  ? H
   H77        1.0     0.122870     0.054704     0.748753    Uiso  ? H
   H78        1.0     0.122814     0.554329     0.749448    Uiso  ? H
   H79        1.0     0.623107     0.054358     0.749059    Uiso  ? H
   H80        1.0     0.623035     0.554500     0.750231    Uiso  ? H
   H81        1.0     0.277384     0.210142     0.878592    Uiso  ? H
   H82        1.0     0.278384     0.711291     0.878766    Uiso  ? H
   H83        1.0     0.777834     0.210635     0.878610    Uiso  ? H
   H84        1.0     0.777656     0.710434     0.878725    Uiso  ? H
   H85        1.0     0.350531     0.202459     0.909540    Uiso  ? H
   H86        1.0     0.351548     0.704857     0.909756    Uiso  ? H
   H87        1.0     0.850951     0.203570     0.909587    Uiso  ? H
   H88        1.0     0.850699     0.703293     0.909750    Uiso  ? H
   H89        1.0     0.176606     0.303353     0.893167    Uiso  ? H
   H90        1.0     0.176191     0.802881     0.893207    Uiso  ? H
   H91        1.0     0.676050     0.302718     0.893273    Uiso  ? H
   H92        1.0     0.676163     0.802928     0.893184    Uiso  ? H
   H93        1.0     0.290476     0.278563     0.950447    Uiso  ? H
   H94        1.0     0.290173     0.780010     0.950588    Uiso  ? H
   H95        1.0     0.789999     0.278632     0.950573    Uiso  ? H
   H96        1.0     0.789943     0.778981     0.950574    Uiso  ? H
   H97        1.0     0.178060     0.338053     0.936172    Uiso  ? H
   H98        1.0     0.177061     0.837893     0.936164    Uiso  ? H
   H99        1.0     0.677137     0.337186     0.936330    Uiso  ? H
   H100       1.0     0.677273     0.837743     0.936178    Uiso  ? H
   H101       1.0     0.433075     0.990997     0.934033    Uiso  ? H
   H102       1.0     0.433162     0.490077     0.933945    Uiso  ? H
   H103       1.0     0.933137     0.990966     0.933860    Uiso  ? H
   H104       1.0     0.932626     0.490411     0.933721    Uiso  ? H
   H105       1.0     0.008048     0.495808     0.884297    Uiso  ? H
   H106       1.0     0.007809     0.997074     0.884209    Uiso  ? H
   H107       1.0     0.507804     0.497011     0.884311    Uiso  ? H
   H108       1.0     0.507783     0.996707     0.884378    Uiso  ? H
   H109       1.0     0.999672     0.033520     0.961038    Uiso  ? H
   H110       1.0     0.998549     0.533799     0.960928    Uiso  ? H
   H111       1.0     0.499822     0.033336     0.961194    Uiso  ? H
   H112       1.0     0.499463     0.532752     0.961203    Uiso  ? H
   H113       1.0     0.121844     0.058786     0.886167    Uiso  ? H
   H114       1.0     0.121818     0.557909     0.886388    Uiso  ? H
   H115       1.0     0.622051     0.057906     0.886306    Uiso  ? H
   H116       1.0     0.621513     0.559386     0.886381    Uiso  ? H
   H117       1.0     0.116228     0.078099     0.931223    Uiso  ? H
   H118       1.0     0.115486     0.578163     0.931320    Uiso  ? H
   H119       1.0     0.616394     0.077662     0.931315    Uiso  ? H
   H120       1.0     0.615747     0.578331     0.931471    Uiso  ? H
