data_orthrombic-FAPbI3
_audit_creation_date              2020-12-23
_audit_creation_method            'Materials Studio'
_symmetry_space_group_name_H-M    'P1'
_symmetry_Int_Tables_number       1
_symmetry_cell_setting            triclinic
loop_
_symmetry_equiv_pos_as_xyz
  x,y,z
_cell_length_a                    8.8520
_cell_length_b                    8.8520
_cell_length_c                    12.5200
_cell_angle_alpha                 90.0000
_cell_angle_beta                  90.0000
_cell_angle_gamma                 90.0000
loop_
_atom_site_label
_atom_site_type_symbol
_atom_site_fract_x
_atom_site_fract_y
_atom_site_fract_z
_atom_site_U_iso_or_equiv
_atom_site_adp_type
_atom_site_occupancy
I1     I     0.86788   0.20330   0.02080   0.21100  Uiso   1.00
I2     I     0.32748   0.29670   0.97920   0.21100  Uiso   1.00
I3     I     0.21292   0.79670   0.52080   0.21100  Uiso   1.00
I4     I     0.75332   0.70330   0.47920   0.21100  Uiso   1.00
I5     I     0.21292   0.79670   0.97920   0.21100  Uiso   1.00
I6     I     0.75332   0.70330   0.02080   0.21100  Uiso   1.00
I7     I     0.86788   0.20330   0.47920   0.21100  Uiso   1.00
I8     I     0.32748   0.29670   0.52080   0.21100  Uiso   1.00
I9     I     0.07144   0.50520   0.25000   0.25900  Uiso   1.00
I10    I     0.61184   0.99480   0.75000   0.25900  Uiso   1.00
I11    I     1.00936   0.49480   0.75000   0.25900  Uiso   1.00
I12    I     0.46896   0.00520   0.25000   0.25900  Uiso   1.00
Pb13   Pb    0.54040   0.00000   0.00000   0.20700  Uiso   1.00
Pb14   Pb    0.00000   0.50000   0.00000   0.20700  Uiso   1.00
Pb15   Pb    0.54040   0.00000   0.50000   0.20700  Uiso   1.00
Pb16   Pb    0.00000   0.50000   0.50000   0.20700  Uiso   1.00
C17    C    -0.47370   1.55383   0.75973   0.01267  Uiso   1.00
N18    N    -0.45323   1.40757   0.75900   0.01267  Uiso   1.00
N19    N    -0.60415   1.62308   0.76002   0.01267  Uiso   1.00
H20    H    -0.37214   1.62495   0.76014   0.01267  Uiso   1.00
H21    H    -0.34431   1.36893   0.75885   0.01267  Uiso   1.00
H22    H    -0.53896   1.32966   0.75857   0.01267  Uiso   1.00
H23    H    -0.70668   1.56917   0.75970   0.01267  Uiso   1.00
H24    H    -0.60321   1.73865   0.76061   0.01267  Uiso   1.00
C25    C    -0.47372   1.55491   0.24217   0.01267  Uiso   1.00
N26    N    -0.44059   1.41098   0.24230   0.01267  Uiso   1.00
N27    N    -0.60972   1.61253   0.24192   0.01267  Uiso   1.00
H28    H    -0.37875   1.63461   0.24227   0.01267  Uiso   1.00
H29    H    -0.32871   1.38199   0.24250   0.01267  Uiso   1.00
H30    H    -0.51919   1.32590   0.24223   0.01267  Uiso   1.00
H31    H    -0.70715   1.54988   0.24180   0.01267  Uiso   1.00
H32    H    -0.61885   1.72774   0.24183   0.01267  Uiso   1.00
C33    C     0.98123   0.96878   0.77377   0.01267  Uiso   1.00
N34    N     0.92359   1.10476   0.77335   0.01267  Uiso   1.00
N35    N     1.12508   0.93565   0.77734   0.01267  Uiso   1.00
H36    H     0.90164   0.87380   0.77086   0.01267  Uiso   1.00
H37    H     0.80845   1.11389   0.77036   0.01267  Uiso   1.00
H38    H     0.98614   1.20219   0.77583   0.01267  Uiso   1.00
H39    H     1.21006   1.01426   0.78026   0.01267  Uiso   1.00
H40    H     1.15411   0.82378   0.77719   0.01267  Uiso   1.00
C41    C     1.04550   0.97559   0.25735   0.01267  Uiso   1.00
N42    N     0.89924   0.95513   0.25588   0.01267  Uiso   1.00
N43    N     1.11472   1.10603   0.25920   0.01267  Uiso   1.00
H44    H     1.11663   0.87404   0.25699   0.01267  Uiso   1.00
H45    H     0.86063   0.84621   0.25450   0.01267  Uiso   1.00
H46    H     0.82133   1.04084   0.25603   0.01267  Uiso   1.00
H47    H     1.06079   1.20855   0.25972   0.01267  Uiso   1.00
H48    H     1.23028   1.10509   0.26020   0.01267  Uiso   1.00
loop_
_geom_bond_atom_site_label_1
_geom_bond_atom_site_label_2
_geom_bond_distance
_geom_bond_site_symmetry_2
_ccdc_geom_bond_type
I1     Pb13    3.422   .     S
I1     Pb14    2.887   1_655 S
I2     Pb14    3.422   1_556 S
I2     Pb13    3.243   1_556 S
I3     Pb15    3.422   1_565 S
I3     Pb16    3.243   .     S
I4     Pb16    2.842   1_655 S
I4     Pb15    3.243   1_565 S
I5     Pb13    3.422   1_566 S
I5     Pb14    3.243   1_556 S
I6     Pb14    2.842   1_655 S
I6     Pb13    3.243   1_565 S
I7     Pb15    3.422   .     S
I7     Pb16    2.887   1_655 S
I8     Pb16    3.422   .     S
I8     Pb15    3.243   .     S
I9     Pb14    3.194   .     S
I9     Pb16    3.194   .     S
I10    Pb13    3.194   1_566 S
I10    Pb15    3.194   1_565 S
I11    Pb16    3.131   1_655 S
I11    Pb14    3.131   1_656 S
I12    Pb15    3.194   .     S
I12    Pb13    3.194   .     S
Pb13   I5      3.422   1_544 S
Pb13   I2      3.243   1_554 S
Pb13   I6      3.243   1_545 S
Pb13   I10     3.194   1_544 S
Pb14   I2      3.422   1_554 S
Pb14   I6      2.842   1_455 S
Pb14   I1      2.887   1_455 S
Pb14   I5      3.243   1_554 S
Pb14   I11     3.131   1_454 S
Pb15   I3      3.422   1_545 S
Pb15   I4      3.243   1_545 S
Pb15   I10     3.194   1_545 S
Pb16   I4      2.842   1_455 S
Pb16   I7      2.887   1_455 S
Pb16   I11     3.131   1_455 S
C17    N18     1.307   .     D
C17    N19     1.307   .     S
C17    H20     1.098   .     S
N18    H21     1.023   .     S
N18    H22     1.025   .     S
N19    H23     1.025   .     S
N19    H24     1.023   .     S
C25    N26     1.307   .     D
C25    N27     1.307   .     S
C25    H28     1.098   .     S
N26    H29     1.023   .     S
N26    H30     1.025   .     S
N27    H31     1.025   .     S
N27    H32     1.023   .     S
C33    N34     1.307   .     D
C33    N35     1.307   .     S
C33    H36     1.098   .     S
N34    H37     1.023   .     S
N34    H38     1.025   .     S
N35    H39     1.025   .     S
N35    H40     1.023   .     S
C41    N42     1.307   .     D
C41    N43     1.307   .     S
C41    H44     1.098   .     S
N42    H45     1.023   .     S
N42    H46     1.025   .     S
N43    H47     1.025   .     S
N43    H48     1.023   .     S
