data_ja8b06050_si_002
_audit_creation_date              2020-12-23
_audit_creation_method            'Materials Studio'
_symmetry_space_group_name_H-M    'PBNM'
_symmetry_Int_Tables_number       62
_symmetry_cell_setting            orthorhombic
loop_
_symmetry_equiv_pos_as_xyz
  x,y,z
  x+1/2,-y+1/2,-z
  -x,-y,z+1/2
  -x+1/2,y+1/2,-z+1/2
  -x,-y,-z
  -x+1/2,y+1/2,z
  x,y,-z+1/2
  x+1/2,-y+1/2,z+1/2
_cell_length_a                    8.6464
_cell_length_b                    8.8182
_cell_length_c                    12.5200
_cell_angle_alpha                 90.0000
_cell_angle_beta                  90.0000
_cell_angle_gamma                 90.0000
loop_
_atom_site_label
_atom_site_type_symbol
_atom_site_fract_x
_atom_site_fract_y
_atom_site_fract_z
_atom_site_U_iso_or_equiv
_atom_site_adp_type
_atom_site_occupancy
I1     I     0.80300   0.20330   0.02080   0.21100  Uiso   1.00
Cs1    Cs    0.99230   1.04510   0.25000   0.28600  Uiso   1.00
I2     I     0.06610   0.50520   0.25000   0.25900  Uiso   1.00
Pb1    Pb    0.50000   0.00000   0.00000   0.20700  Uiso   1.00
loop_
_geom_bond_atom_site_label_1
_geom_bond_atom_site_label_2
_geom_bond_distance
_geom_bond_site_symmetry_2
_ccdc_geom_bond_type
I1     Pb1     3.185   .     S
I1     Pb1     3.133   2     S
I2     Pb1     3.182   2_455 S
I2     Pb1     3.182   4     S
Pb1    I1      3.185   5_655 S
Pb1    I1      3.133   2_455 S
Pb1    I1      3.133   6_645 S
Pb1    I2      3.182   2     S
Pb1    I2      3.182   4_545 S
